# Packages
 &PACKAGES
 useICEBERG=.TRUE.,
# Likely other packages too
 &
